[General]
network = FastDDSDemo
sim-time-limit = 10s
**.pub.class = "Publisher"
**.sub.class = "Subscriber"
